Version 4.1
SHEET 1 2604 1032
WIRE 320 -144 -608 -144
WIRE 560 -144 320 -144
WIRE 1616 -144 560 -144
WIRE 1072 -80 432 -80
WIRE 1504 -80 1152 -80
WIRE 320 -32 320 -144
WIRE 560 -32 560 -144
WIRE -608 16 -608 -144
WIRE 1072 32 656 32
WIRE 1392 32 1152 32
WIRE -224 112 -368 112
WIRE 32 112 -160 112
WIRE 128 112 32 112
WIRE 320 112 320 48
WIRE 320 112 208 112
WIRE 432 112 432 -80
WIRE 432 112 320 112
WIRE 560 112 560 48
WIRE 656 112 656 32
WIRE 656 112 560 112
WIRE 720 112 656 112
WIRE 896 112 800 112
WIRE 1504 112 1504 -80
WIRE 1712 112 1504 112
WIRE 1904 112 1792 112
WIRE -368 144 -368 112
WIRE 320 176 320 112
WIRE 560 176 560 112
WIRE 32 224 32 112
WIRE 256 224 32 224
WIRE 896 224 896 112
WIRE 896 224 624 224
WIRE 896 256 896 224
WIRE 1024 256 896 256
WIRE 32 288 32 224
WIRE 896 288 896 256
WIRE 1024 288 1024 256
WIRE 1616 288 1616 -144
WIRE 1504 304 1504 112
WIRE 1584 304 1504 304
WIRE 1904 320 1904 112
WIRE 1904 320 1648 320
WIRE 2192 320 1904 320
WIRE 2352 320 2256 320
WIRE 2528 320 2352 320
WIRE 1392 336 1392 32
WIRE 1504 336 1392 336
WIRE 1584 336 1504 336
WIRE 320 416 320 272
WIRE 400 416 320 416
WIRE 560 416 560 272
WIRE 560 416 464 416
WIRE 896 416 896 368
WIRE 1024 416 1024 352
WIRE 1024 416 896 416
WIRE 2352 416 2352 320
WIRE 2528 416 2528 320
WIRE -608 480 -608 96
WIRE -368 480 -368 224
WIRE -368 480 -608 480
WIRE 32 480 32 368
WIRE 32 480 -368 480
WIRE 752 480 32 480
WIRE 896 480 896 416
WIRE 896 480 752 480
WIRE 1216 480 896 480
WIRE 1504 480 1504 336
WIRE 1504 480 1296 480
WIRE 752 496 752 480
WIRE -32 576 -160 576
WIRE 432 576 32 576
WIRE 656 576 432 576
WIRE 320 592 320 416
WIRE 560 592 560 416
WIRE -608 608 -608 480
WIRE 2352 608 2352 480
WIRE 2432 608 2352 608
WIRE 2528 608 2528 496
WIRE 2528 608 2432 608
WIRE -160 624 -160 576
WIRE 432 640 432 576
WIRE 432 640 384 640
WIRE 496 640 432 640
WIRE 656 672 656 576
WIRE 752 672 752 576
WIRE 752 672 656 672
WIRE 2432 688 2432 608
WIRE 752 736 752 672
WIRE -368 768 -368 480
WIRE -160 768 -160 704
WIRE -160 768 -368 768
WIRE 320 768 320 688
WIRE 560 768 560 688
WIRE -608 928 -608 688
WIRE 320 928 320 848
WIRE 320 928 -608 928
WIRE 560 928 560 848
WIRE 560 928 320 928
WIRE 752 928 752 816
WIRE 752 928 560 928
WIRE 1616 928 1616 352
WIRE 1616 928 752 928
WIRE -608 992 -608 928
FLAG -608 992 0
FLAG 2432 688 0
SYMBOL npn 256 176 R0
SYMATTR InstName Q1
SYMATTR Value 2N3904
SYMBOL npn 624 176 M0
SYMATTR InstName Q2
SYMATTR Value 2N3904
SYMBOL cap 464 400 R90
WINDOW 0 0 32 VBottom 2
WINDOW 3 32 32 VTop 2
SYMATTR InstName C1
SYMATTR Value 10µ
SYMBOL npn 384 592 M0
SYMATTR InstName Q3
SYMATTR Value 2N3904
SYMBOL npn 496 592 R0
SYMATTR InstName Q4
SYMATTR Value 2N3904
SYMBOL res 304 752 R0
SYMATTR InstName R1
SYMATTR Value 1.5k
SYMBOL res 544 752 R0
SYMATTR InstName R2
SYMATTR Value 1.5k
SYMBOL res 304 -48 R0
SYMATTR InstName R3
SYMATTR Value 1k
SYMBOL res 544 -48 R0
SYMATTR InstName R4
SYMATTR Value 1k
SYMBOL res 224 96 R90
WINDOW 0 0 56 VBottom 2
WINDOW 3 32 56 VTop 2
SYMATTR InstName R5
SYMATTR Value 4.7k
SYMBOL res 816 96 R90
WINDOW 0 0 56 VBottom 2
WINDOW 3 32 56 VTop 2
SYMATTR InstName R6
SYMATTR Value 4.7k
SYMBOL res 48 384 R180
WINDOW 0 36 76 Left 2
WINDOW 3 36 40 Left 2
SYMATTR InstName R7
SYMATTR Value 2.2k
SYMBOL res 912 384 R180
WINDOW 0 36 76 Left 2
WINDOW 3 36 40 Left 2
SYMATTR InstName R8
SYMATTR Value 2.2k
SYMBOL voltage -608 0 R0
WINDOW 123 0 0 Left 0
WINDOW 39 0 0 Left 0
SYMATTR InstName V1
SYMATTR Value 2.5
SYMBOL voltage -608 592 R0
WINDOW 123 0 0 Left 0
WINDOW 39 0 0 Left 0
SYMATTR InstName V2
SYMATTR Value 2.5
SYMBOL voltage -368 128 R0
WINDOW 123 0 0 Left 0
WINDOW 39 0 0 Left 0
SYMATTR InstName VC
SYMATTR Value SINE(0 0.05 20k 0)
SYMBOL voltage -160 608 R0
WINDOW 123 0 0 Left 0
WINDOW 39 0 0 Left 0
SYMATTR InstName VM
SYMATTR Value SINE(0 0.6 100 0)
SYMBOL cap 32 560 R90
WINDOW 0 0 32 VBottom 2
WINDOW 3 32 32 VTop 2
SYMATTR InstName C2
SYMATTR Value 4.7µ
SYMBOL cap -160 96 R90
WINDOW 0 0 32 VBottom 2
WINDOW 3 32 32 VTop 2
SYMATTR InstName C3
SYMATTR Value 1µ
SYMBOL cap 1040 352 R180
WINDOW 0 24 56 Left 2
WINDOW 3 24 8 Left 2
SYMATTR InstName C4
SYMATTR Value 1µ
SYMBOL res 736 480 R0
SYMATTR InstName R9
SYMATTR Value 10k
SYMBOL res 736 720 R0
SYMATTR InstName R10
SYMATTR Value 10k
SYMBOL res 1168 -96 R90
WINDOW 0 0 56 VBottom 2
WINDOW 3 32 56 VTop 2
SYMATTR InstName R11
SYMATTR Value 20k
SYMBOL res 1168 16 R90
WINDOW 0 0 56 VBottom 2
WINDOW 3 32 56 VTop 2
SYMATTR InstName R12
SYMATTR Value 20k
SYMBOL res 1312 464 R90
WINDOW 0 0 56 VBottom 2
WINDOW 3 32 56 VTop 2
SYMATTR InstName R13
SYMATTR Value 20k
SYMBOL res 1808 96 R90
WINDOW 0 0 56 VBottom 2
WINDOW 3 32 56 VTop 2
SYMATTR InstName R14
SYMATTR Value 20k
SYMBOL OpAmps\\AD8542 1616 256 R0
SYMATTR InstName U1
SYMBOL diode 2192 336 R270
WINDOW 0 32 32 VTop 2
WINDOW 3 0 32 VBottom 2
SYMATTR InstName D1
SYMATTR Value 1N4148
SYMBOL cap 2336 416 R0
SYMATTR InstName C5
SYMATTR Value 200n
SYMBOL res 2512 400 R0
SYMATTR InstName R15
SYMATTR Value 100k
TEXT -168 552 Left 2 ;Modulation
TEXT -368 80 Left 2 ;Carrier
TEXT 1904 368 Left 2 ;A M Output
TEXT -616 -160 Left 2 ;5p0
TEXT -632 472 VLeft 2 ;2p5
TEXT -640 1016 Left 2 !.tran 0 50m 0
